Version 4
SHEET 1 880 680
WIRE 192 112 192 96
WIRE 144 128 96 128
WIRE 272 144 240 144
WIRE 96 160 96 128
WIRE 144 160 96 160
FLAG 192 176 0
FLAG 192 16 0
FLAG 96 240 0
SYMBOL comparator 160 112 R0
SYMATTR InstName X1
SYMBOL voltage 96 144 R0
WINDOW 123 0 0 Left 0
WINDOW 39 0 0 Left 0
SYMATTR InstName V1
SYMATTR Value 1.28
SYMBOL voltage 192 112 R180
WINDOW 0 24 96 Left 2
WINDOW 3 24 16 Left 2
WINDOW 123 0 0 Left 0
WINDOW 39 0 0 Left 0
SYMATTR InstName V2
SYMATTR Value 3.3
TEXT 288 56 Left 2 !.tran 1u
