Version 4
SHEET 1 880 680
WIRE 208 112 208 80
WIRE 208 128 208 112
WIRE 160 144 80 144
WIRE 192 144 160 144
WIRE 176 160 80 160
WIRE 192 160 176 160
WIRE 80 176 80 160
WIRE 304 192 208 192
WIRE 304 272 208 272
FLAG 0 144 0
FLAG 80 256 0
FLAG 208 272 0
FLAG 272 80 0
SYMBOL voltage 304 176 R0
WINDOW 123 0 0 Left 0
WINDOW 39 0 0 Left 0
SYMATTR InstName V1
SYMATTR Value PULSE(0 3.3 2u 0.1n 0.1n 2u 4u)
SYMBOL voltage 80 160 R0
WINDOW 0 33 57 Left 2
WINDOW 3 24 96 Left 0
WINDOW 123 0 0 Left 0
WINDOW 39 0 0 Left 0
SYMATTR InstName V2
SYMATTR Value SINE(1.65 1.65 100k 0)
SYMBOL voltage 96 144 R90
WINDOW 0 -32 56 VBottom 2
WINDOW 3 25 117 VTop 1
WINDOW 123 0 0 Left 0
WINDOW 39 0 0 Left 0
SYMATTR InstName V3
SYMATTR Value PULSE(0 3.3 0 0.1n 0.1n 6u 12u)
SYMBOL cap 272 64 R90
WINDOW 0 0 32 VBottom 2
WINDOW 3 32 32 VTop 2
SYMATTR InstName C1
SYMATTR Value 1n
SYMBOL t_mux 208 160 R0
SYMATTR InstName X1
TEXT -80 8 Left 2 !.INCLUDE t14y_tsmc_025_level3.lib
TEXT 0 40 Left 2 !.tran 40u
