Version 4
SHEET 1 880 680
WIRE 736 -128 -48 -128
WIRE 128 -64 -272 -64
WIRE 144 -64 128 -64
WIRE 128 -32 -208 -32
WIRE 144 -32 128 -32
WIRE 416 -32 400 -32
WIRE 576 -32 416 -32
WIRE -48 0 -48 -128
WIRE 128 0 -48 0
WIRE 144 0 128 0
WIRE -208 32 -208 -32
WIRE 160 32 160 16
WIRE 192 32 192 16
WIRE 224 32 224 16
WIRE 256 32 256 16
WIRE 288 32 288 16
WIRE 320 32 320 16
WIRE 352 32 352 16
WIRE 384 32 384 16
WIRE 672 48 576 48
WIRE 384 80 384 32
WIRE 384 80 128 80
WIRE 320 96 320 32
WIRE 320 96 304 96
WIRE 256 112 256 32
WIRE 320 112 256 112
WIRE 352 112 352 32
WIRE 352 112 336 112
WIRE -208 128 -208 112
WIRE 224 128 224 32
WIRE 352 128 224 128
WIRE 192 144 192 32
WIRE 384 144 192 144
WIRE 576 144 576 128
WIRE 160 160 160 32
WIRE 416 160 160 160
WIRE 336 176 336 112
WIRE 336 176 160 176
WIRE 304 192 304 96
WIRE 304 192 192 192
WIRE 288 208 288 32
WIRE 288 208 224 208
WIRE 128 240 128 80
WIRE 160 240 160 176
WIRE 192 240 192 192
WIRE 224 240 224 208
WIRE 320 240 320 112
WIRE 352 240 352 128
WIRE 384 240 384 144
WIRE 416 240 416 160
WIRE 448 256 432 256
WIRE 96 272 -80 272
WIRE 112 272 96 272
WIRE 656 288 656 256
WIRE 656 288 336 288
WIRE 656 304 656 288
WIRE 448 320 448 256
WIRE 608 320 448 320
WIRE 112 336 64 336
WIRE 272 336 192 336
WIRE 736 336 736 -128
WIRE 736 336 704 336
WIRE 336 352 336 288
WIRE 608 352 592 352
WIRE 336 368 336 352
WIRE 272 384 272 336
WIRE 304 384 272 384
WIRE 320 384 304 384
WIRE 368 384 352 384
WIRE 384 384 368 384
WIRE 64 416 64 336
WIRE 336 416 336 400
WIRE 384 464 384 384
WIRE 592 464 592 352
WIRE 592 464 384 464
WIRE 336 512 336 416
FLAG -80 352 0
FLAG -208 128 0
FLAG 656 368 0
FLAG 64 416 0
FLAG -272 16 0
FLAG 656 176 0
FLAG 336 592 0
FLAG 576 144 0
SYMBOL comparator 624 304 R0
SYMATTR InstName X2
SYMBOL SH_ckt 336 384 R270
SYMATTR InstName X3
SYMBOL voltage -80 256 R0
WINDOW 123 0 0 Left 0
WINDOW 39 0 0 Left 0
WINDOW 0 -97 44 Left 2
WINDOW 3 -62 72 Left 2
SYMATTR InstName v_ref
SYMATTR Value 2
SYMBOL voltage -208 16 R0
WINDOW 0 41 48 Left 1
WINDOW 3 37 68 Left 0
WINDOW 123 0 0 Left 0
WINDOW 39 0 0 Left 0
SYMATTR InstName clock
SYMATTR Value PULSE(0 3.3 62.5n 1p 1p 62.5n 125n)
SYMBOL voltage -272 -80 R0
WINDOW 3 -106 1 Left 0
WINDOW 123 0 0 Left 0
WINDOW 39 0 0 Left 0
WINDOW 0 -69 -20 Left 2
SYMATTR Value PULSE(0 3.3 80n 10p 10p 1045n 1125n)
SYMATTR InstName v_start
SYMBOL voltage 208 336 R90
WINDOW 0 55 53 VBottom 2
WINDOW 3 60 47 VTop 1
WINDOW 123 0 0 Left 0
WINDOW 39 0 0 Left 0
SYMATTR InstName vin
SYMATTR Value SINE(1 1 {x} 0 0)
SYMBOL voltage 656 272 R180
WINDOW 0 31 67 Left 2
WINDOW 3 31 42 Left 2
WINDOW 123 0 0 Left 0
WINDOW 39 0 0 Left 0
SYMATTR InstName Vdd
SYMATTR Value 3.3
SYMBOL voltage 336 496 R0
WINDOW 123 0 0 Left 0
WINDOW 39 0 0 Left 0
WINDOW 0 -157 45 Left 0
WINDOW 3 -194 61 Left 0
SYMATTR InstName v_control1
SYMATTR Value PULSE(-3.3 3.3 0 10p 10p 70n 1125n)
SYMBOL dac_ckt 208 256 R0
SYMATTR InstName X4
SYMBOL sar_new 256 -32 R0
SYMATTR InstName X1
SYMBOL res 560 -48 R0
WINDOW 0 38 28 Left 2
WINDOW 3 43 54 Left 2
SYMATTR InstName R1
SYMATTR Value 56k
SYMBOL res 592 144 R180
WINDOW 0 53 64 Left 2
WINDOW 3 41 40 Left 2
SYMATTR InstName R2
SYMATTR Value 200k
TEXT 56 -232 Left 2 !.tran 1m
TEXT -696 -200 Left 2 !.option cshunt=1e-15 reltol=0.003 abstol=1e-10 gmin=1e-10
TEXT 592 56 Left 1 ;ideal ac output
TEXT -192 576 Left 2 !.step param x list 10k 20k 40k 80k 160k 320k
