Version 4
SHEET 1 880 756
WIRE 720 0 -64 0
WIRE 112 64 -288 64
WIRE 128 64 112 64
WIRE 112 96 -224 96
WIRE 128 96 112 96
WIRE -64 128 -64 0
WIRE 112 128 -64 128
WIRE 128 128 112 128
WIRE -224 160 -224 96
WIRE 144 160 144 144
WIRE 176 160 176 144
WIRE 208 160 208 144
WIRE 240 160 240 144
WIRE 272 160 272 144
WIRE 304 160 304 144
WIRE 336 160 336 144
WIRE 368 160 368 144
WIRE 368 208 368 160
WIRE 368 208 112 208
WIRE 304 224 304 160
WIRE 304 224 288 224
WIRE 240 240 240 160
WIRE 304 240 240 240
WIRE 336 240 336 160
WIRE 336 240 320 240
WIRE -224 256 -224 240
WIRE 208 256 208 160
WIRE 336 256 208 256
WIRE 176 272 176 160
WIRE 368 272 176 272
WIRE 144 288 144 160
WIRE 400 288 144 288
WIRE 320 304 320 240
WIRE 320 304 144 304
WIRE 288 320 288 224
WIRE 288 320 176 320
WIRE 272 336 272 160
WIRE 272 336 208 336
WIRE 112 368 112 208
WIRE 144 368 144 304
WIRE 176 368 176 320
WIRE 208 368 208 336
WIRE 304 368 304 240
WIRE 336 368 336 256
WIRE 368 368 368 272
WIRE 400 368 400 288
WIRE 432 384 416 384
WIRE 80 400 -96 400
WIRE 96 400 80 400
WIRE 640 416 640 384
WIRE 640 416 320 416
WIRE 640 432 640 416
WIRE 592 448 496 448
WIRE 272 464 176 464
WIRE 432 464 432 384
WIRE 448 464 432 464
WIRE 720 464 720 0
WIRE 720 464 688 464
WIRE 320 480 320 416
WIRE 592 480 576 480
WIRE 320 496 320 480
WIRE 272 512 272 464
WIRE 288 512 272 512
WIRE 304 512 288 512
WIRE 352 512 336 512
WIRE 96 544 96 464
WIRE 320 544 320 528
WIRE 496 544 496 528
WIRE 352 592 352 512
WIRE 576 592 576 480
WIRE 576 592 352 592
WIRE 320 640 320 544
FLAG -96 480 0
FLAG -224 256 0
FLAG 640 496 0
FLAG 96 544 0
FLAG -288 144 0
FLAG 640 304 0
FLAG 320 720 0
FLAG 448 512 0
FLAG 496 544 0
SYMBOL sar_logic 240 96 R0
SYMATTR InstName X1
SYMBOL comparator 608 432 R0
SYMATTR InstName X3
SYMBOL SH_ckt 320 512 R270
SYMATTR InstName X4
SYMBOL voltage -96 384 R0
WINDOW 123 0 0 Left 0
WINDOW 39 0 0 Left 0
WINDOW 0 32 54 Left 2
WINDOW 3 34 84 Left 2
SYMATTR InstName v_ref
SYMATTR Value 2.0
SYMBOL voltage -224 144 R0
WINDOW 0 42 74 Left 1
WINDOW 3 24 96 Left 0
WINDOW 123 0 0 Left 0
WINDOW 39 0 0 Left 0
SYMATTR InstName 8Mhz_clk
SYMATTR Value PULSE(0 3.3 62.5n 0.1n 0.1n 62.5n 125n)
SYMBOL voltage -288 48 R0
WINDOW 3 -106 1 Left 0
WINDOW 123 0 0 Left 0
WINDOW 39 0 0 Left 0
WINDOW 0 -69 -20 Left 2
SYMATTR Value PULSE(0 3.3 65n 0.1n 0.1n 10u 20u)
SYMATTR InstName v_start
SYMBOL voltage 192 464 R90
WINDOW 0 50 58 VBottom 1
WINDOW 3 52 54 VTop 2
WINDOW 123 0 0 Left 0
WINDOW 39 0 0 Left 0
SYMATTR InstName vin
SYMATTR Value 1.3
SYMBOL voltage 640 400 R180
WINDOW 0 31 67 Left 2
WINDOW 3 31 42 Left 2
WINDOW 123 0 0 Left 0
WINDOW 39 0 0 Left 0
SYMATTR InstName Vdd
SYMATTR Value 3.3
SYMBOL voltage 320 624 R0
WINDOW 123 0 0 Left 0
WINDOW 39 0 0 Left 0
WINDOW 0 -82 53 Left 0
WINDOW 3 -76 72 Left 2
SYMATTR InstName v_control
SYMATTR Value 3.3
SYMBOL e 496 432 R0
SYMATTR InstName E1
SYMATTR Value 1
SYMBOL dac_ckt 192 384 R0
SYMATTR InstName X2
TEXT 32 -16 Left 2 !.tran 2u
