Version 4
SHEET 1 880 680
WIRE 176 80 160 80
WIRE 160 128 160 80
WIRE 112 208 32 208
WIRE 160 208 160 176
WIRE 160 240 160 224
WIRE 96 288 32 288
FLAG 256 80 0
FLAG 96 288 0
SYMBOL nmos4 112 128 R0
SYMATTR InstName M1
SYMATTR Value CMOSN
SYMATTR Value2 l=250n w=10u m=40
SYMBOL voltage 32 192 R0
WINDOW 123 0 0 Left 0
WINDOW 39 0 0 Left 0
SYMATTR InstName V1
SYMATTR Value PULSE(0 3.3 0 0.1n 0.1n 6u 12u)
SYMBOL voltage 160 80 R270
WINDOW 0 32 56 VTop 2
WINDOW 3 -32 56 VBottom 2
WINDOW 123 0 0 Left 0
WINDOW 39 0 0 Left 0
SYMATTR InstName V2
SYMATTR Value SINE(1.65 1.65 100k 0)
TEXT 112 -8 Left 2 !.include t14y_tsmc_025_level3.lib
TEXT 344 56 Left 2 !.tran 25u
