Version 4
SHEET 1 880 680
WIRE 336 -16 224 -16
WIRE 336 0 336 -16
WIRE 224 112 224 -16
WIRE 176 128 -64 128
WIRE -64 144 -64 128
WIRE 320 144 272 144
WIRE 176 160 96 160
WIRE 96 176 96 160
FLAG 336 80 0
FLAG 320 144 vout
FLAG 224 176 0
FLAG 96 256 0
FLAG -64 224 0
SYMBOL comparator 192 112 R0
SYMATTR InstName X1
SYMBOL voltage 336 -16 R0
WINDOW 123 0 0 Left 0
WINDOW 39 0 0 Left 0
SYMATTR InstName V1
SYMATTR Value 3.3
SYMBOL voltage 96 160 R0
WINDOW 0 34 31 Left 2
WINDOW 123 0 0 Left 0
WINDOW 39 0 0 Left 0
SYMATTR InstName V2
SYMATTR Value PULSE(2 2.005 0 0 0 100n 200n 0)
SYMBOL voltage -64 128 R0
WINDOW 3 -305 121 Left 2
WINDOW 123 0 0 Left 0
WINDOW 39 0 0 Left 0
SYMATTR InstName V3
SYMATTR Value PULSE(2.005 2 0 0 0 100n 200n 0)
TEXT -98 280 Left 2 !.tran 400n
